176
Atoms. Timestep: 10000000
C 0 0 -8.7192
C 2.1798 0 -6.5394
C 0 2.1798 -6.5394
C 2.1798 2.1798 -8.7192
Si 1.0899 1.0899 -7.6293
Si 3.2697 1.0899 -5.4495
Si 1.0899 3.2697 -5.4495
Si 3.2697 3.2697 -7.6293
C 4.3596 0 -8.7192
C 6.5394 0 -6.5394
C 4.3596 2.1798 -6.5394
C 6.5394 2.1798 -8.7192
Si 5.4495 1.0899 -7.6293
Si 7.6293 1.0899 -5.4495
Si 5.4495 3.2697 -5.4495
Si 7.6293 3.2697 -7.6293
C 8.7192 0 -8.7192
C 10.899 0 -6.5394
C 8.7192 2.1798 -6.5394
C 10.899 2.1798 -8.7192
Si 9.8091 1.0899 -7.6293
Si 11.9889 1.0899 -5.4495
Si 9.8091 3.2697 -5.4495
Si 11.9889 3.2697 -7.6293
C 0 4.3596 -8.7192
C 2.1798 4.3596 -6.5394
C 0 6.5394 -6.5394
C 2.1798 6.5394 -8.7192
Si 1.0899 5.4495 -7.6293
Si 3.2697 5.4495 -5.4495
Si 1.0899 7.6293 -5.4495
Si 3.2697 7.6293 -7.6293
C 4.3596 4.3596 -8.7192
C 6.5394 4.3596 -6.5394
C 4.3596 6.5394 -6.5394
C 6.5394 6.5394 -8.7192
Si 5.4495 5.4495 -7.6293
Si 7.6293 5.4495 -5.4495
Si 5.4495 7.6293 -5.4495
Si 7.6293 7.6293 -7.6293
C 8.7192 4.3596 -8.7192
C 10.899 4.3596 -6.5394
C 8.7192 6.5394 -6.5394
C 10.899 6.5394 -8.7192
Si 9.8091 5.4495 -7.6293
Si 11.9889 5.4495 -5.4495
Si 9.8091 7.6293 -5.4495
Si 11.9889 7.6293 -7.6293
C 0 8.7192 -8.7192
C 2.1798 8.7192 -6.5394
C 0 10.899 -6.5394
C 2.1798 10.899 -8.7192
Si 1.0899 9.8091 -7.6293
Si 3.2697 9.8091 -5.4495
Si 1.0899 11.9889 -5.4495
Si 3.2697 11.9889 -7.6293
C 4.3596 8.7192 -8.7192
C 6.5394 8.7192 -6.5394
C 4.3596 10.899 -6.5394
C 6.5394 10.899 -8.7192
Si 5.4495 9.8091 -7.6293
Si 7.6293 9.8091 -5.4495
Si 5.4495 11.9889 -5.4495
Si 7.6293 11.9889 -7.6293
C 8.7192 8.7192 -8.7192
C 10.899 8.7192 -6.5394
C 8.7192 10.899 -6.5394
C 10.899 10.899 -8.7192
Si 9.8091 9.8091 -7.6293
Si 11.9889 9.8091 -5.4495
Si 9.8091 11.9889 -5.4495
Si 11.9889 11.9889 -7.6293
C 2.20975 0.0669219 -2.11811
C 0.0828556 2.0555 -2.12182
Si 1.07304 1.05869 -3.29066
Si 3.40717 1.12338 -1.01627
Si 1.16033 3.13392 -1.13511
Si 3.26686 3.27688 -3.27287
C 2.1798 2.1798 -4.3596
C 0 0 -4.3596
C 6.53271 0.0636454 -2.22164
C 4.40272 2.19083 -2.20276
Si 5.48742 1.11182 -3.32834
Si 7.67297 1.0936 -1.22854
Si 5.43931 3.3381 -1.12352
Si 7.59974 3.29187 -3.28706
C 6.5394 2.1798 -4.3596
C 4.3596 0 -4.3596
C 10.8617 0.0169612 -2.32696
C 8.70299 2.2258 -2.22998
Si 9.7752 1.12008 -3.33123
Si 11.9282 1.06086 -1.14721
Si 9.79174 3.29532 -1.16022
Si 12.0213 3.22204 -3.32023
C 10.899 2.1798 -4.3596
C 8.7192 0 -4.3596
C 2.16102 4.40927 -2.21816
C 13.0698 6.51592 -2.30284
Si 1.11684 5.40205 -3.27721
Si 3.32149 5.49062 -1.17179
Si 1.12215 7.66603 -1.1669
Si 3.28914 7.66629 -3.30862
C 2.1798 6.5394 -4.3596
C 0 4.3596 -4.3596
C 6.5394 6.5394 -4.3596
C 6.53152 4.35196 -2.23169
C 4.43865 6.48089 -2.19717
C 4.3596 4.3596 -4.3596
Si 5.44887 5.47473 -3.27119
Si 7.64893 5.40438 -1.04232
Si 5.57238 7.62087 -0.936354
Si 7.67159 7.61678 -3.23005
C 10.899 6.5394 -4.3596
C 8.7192 4.3596 -4.3596
C 10.8867 4.31206 -2.21428
C 8.77048 6.50903 -2.18113
Si 9.85863 5.40084 -3.29276
Si 12.0521 5.36567 -1.1748
Si 9.89647 7.54791 -1.18488
Si 12.0385 7.6061 -3.31071
C 2.1798 10.899 -4.3596
C 0 8.7192 -4.3596
C 2.26758 8.71838 -2.29551
C 0.0202753 10.8985 -2.28081
Si 1.12338 9.80726 -3.3452
Si 3.35974 9.85196 -1.14781
Si 1.09437 11.9559 -1.0809
Si 3.31513 11.9754 -3.25837
C 6.5394 10.899 -4.3596
C 4.3596 8.7192 -4.3596
C 6.6117 8.6764 -2.08477
C 4.44181 10.9163 -2.17348
Si 5.49798 9.77297 -3.28848
Si 7.72492 9.70187 -0.945036
Si 5.50212 12.0063 -1.02408
Si 7.57723 11.9795 -3.28023
C 10.899 10.899 -4.3596
C 8.7192 8.7192 -4.3596
C 10.8983 8.73251 -2.35891
C 8.78705 10.8457 -2.23346
Si 9.75985 9.82911 -3.35073
Si 11.9966 9.79635 -1.19982
Si 9.83916 12.0105 -1.32052
Si 12.0182 11.955 -3.35647
C 12.813 12.7396 -0.157426
C 2.48119 2.49953 -0.0725549
C 4.22253 12.8338 -0.103943
C 6.87855 2.51456 -0.239894
C 8.73185 12.9853 -0.279231
C 10.4323 1.86787 -0.374415
C 0.488867 4.58012 -0.364406
C 2.17704 6.63186 -0.235568
C 4.15788 4.2828 -0.234074
C 6.81605 6.59217 -0.0525384
C 8.66793 4.06151 -0.0653539
C 11.2415 6.71063 -0.307919
C 12.9381 8.5753 -0.26708
C 2.52946 11.134 -0.00944415
C 4.06757 8.41696 -0.327972
C 6.95933 11.2249 -0.139983
C 8.63979 8.2587 -0.0559919
C 11.096 11.0693 -0.387701
C 7.79829 3.14818 0.738276
C 9.5296 1.05252 0.462411
C 12.112 7.64756 0.426717
C 7.79493 12.1135 0.561191
C 3.35855 12.0668 0.704503
C 8.34293 1.79733 1.43896
C 7.86546 7.2943 0.758813
Si 11.7994 11.8762 1.01229
C 3.27555 3.50692 0.756647
C 3.14662 7.66312 0.423212
C 10.5178 0.105565 1.3746
C 7.43549 0.339803 1.44367
C 1.36757 5.35428 0.415954
C 2.33325 4.62912 1.5755
