176
Atoms. Timestep: 10000000
C 0 0 -8.7192
C 2.1798 0 -6.5394
C 0 2.1798 -6.5394
C 2.1798 2.1798 -8.7192
Si 1.0899 1.0899 -7.6293
Si 3.2697 1.0899 -5.4495
Si 1.0899 3.2697 -5.4495
Si 3.2697 3.2697 -7.6293
C 4.3596 0 -8.7192
C 6.5394 0 -6.5394
C 4.3596 2.1798 -6.5394
C 6.5394 2.1798 -8.7192
Si 5.4495 1.0899 -7.6293
Si 7.6293 1.0899 -5.4495
Si 5.4495 3.2697 -5.4495
Si 7.6293 3.2697 -7.6293
C 8.7192 0 -8.7192
C 10.899 0 -6.5394
C 8.7192 2.1798 -6.5394
C 10.899 2.1798 -8.7192
Si 9.8091 1.0899 -7.6293
Si 11.9889 1.0899 -5.4495
Si 9.8091 3.2697 -5.4495
Si 11.9889 3.2697 -7.6293
C 0 4.3596 -8.7192
C 2.1798 4.3596 -6.5394
C 0 6.5394 -6.5394
C 2.1798 6.5394 -8.7192
Si 1.0899 5.4495 -7.6293
Si 3.2697 5.4495 -5.4495
Si 1.0899 7.6293 -5.4495
Si 3.2697 7.6293 -7.6293
C 4.3596 4.3596 -8.7192
C 6.5394 4.3596 -6.5394
C 4.3596 6.5394 -6.5394
C 6.5394 6.5394 -8.7192
Si 5.4495 5.4495 -7.6293
Si 7.6293 5.4495 -5.4495
Si 5.4495 7.6293 -5.4495
Si 7.6293 7.6293 -7.6293
C 8.7192 4.3596 -8.7192
C 10.899 4.3596 -6.5394
C 8.7192 6.5394 -6.5394
C 10.899 6.5394 -8.7192
Si 9.8091 5.4495 -7.6293
Si 11.9889 5.4495 -5.4495
Si 9.8091 7.6293 -5.4495
Si 11.9889 7.6293 -7.6293
C 0 8.7192 -8.7192
C 2.1798 8.7192 -6.5394
C 0 10.899 -6.5394
C 2.1798 10.899 -8.7192
Si 1.0899 9.8091 -7.6293
Si 3.2697 9.8091 -5.4495
Si 1.0899 11.9889 -5.4495
Si 3.2697 11.9889 -7.6293
C 4.3596 8.7192 -8.7192
C 6.5394 8.7192 -6.5394
C 4.3596 10.899 -6.5394
C 6.5394 10.899 -8.7192
Si 5.4495 9.8091 -7.6293
Si 7.6293 9.8091 -5.4495
Si 5.4495 11.9889 -5.4495
Si 7.6293 11.9889 -7.6293
C 8.7192 8.7192 -8.7192
C 10.899 8.7192 -6.5394
C 8.7192 10.899 -6.5394
C 10.899 10.899 -8.7192
Si 9.8091 9.8091 -7.6293
Si 11.9889 9.8091 -5.4495
Si 9.8091 11.9889 -5.4495
Si 11.9889 11.9889 -7.6293
C 2.17219 0.0358995 -2.15039
C 0.0553498 2.16054 -2.19787
Si 1.1201 1.09323 -3.30013
Si 3.1647 1.13141 -1.03329
Si 0.947465 3.36042 -0.981155
Si 3.24678 3.22869 -3.27985
C 2.1798 2.1798 -4.3596
C 0 0 -4.3596
C 6.46395 13.0286 -2.14159
C 4.28263 2.12248 -2.19254
Si 5.4109 1.06791 -3.25468
Si 7.6122 1.12904 -1.02755
Si 5.37227 3.23849 -1.14142
Si 7.58445 3.24746 -3.34782
C 6.5394 2.1798 -4.3596
C 4.3596 0 -4.3596
C 10.8112 13.0527 -2.17629
C 8.6525 2.16731 -2.20901
Si 9.75848 1.10381 -3.34578
Si 11.8829 1.08889 -1.17027
Si 9.64194 3.30881 -1.11662
Si 12.0004 3.27457 -3.29198
C 10.899 2.1798 -4.3596
C 8.7192 0 -4.3596
C 2.12959 4.35382 -2.11206
C 13.0578 6.53487 -2.18888
Si 1.09483 5.45418 -3.28098
Si 3.21848 5.47436 -1.19575
Si 1.04841 7.68992 -1.02497
Si 3.21999 7.7291 -3.27404
C 2.1798 6.5394 -4.3596
C 0 4.3596 -4.3596
C 6.5394 6.5394 -4.3596
C 6.45604 4.31854 -2.20708
C 4.28603 6.57586 -2.30725
C 4.3596 4.3596 -4.3596
Si 5.37116 5.4376 -3.27531
Si 7.5321 5.43846 -1.21084
Si 5.46044 7.63149 -1.12624
Si 7.52425 7.70226 -3.30541
C 10.899 6.5394 -4.3596
C 8.7192 4.3596 -4.3596
C 10.8476 4.41802 -2.18809
C 8.54978 6.48764 -2.3033
Si 9.77488 5.45848 -3.24937
Si 11.919 5.4743 -1.09209
Si 9.68243 7.61502 -1.20676
Si 11.9855 7.6993 -3.25643
C 2.1798 10.899 -4.3596
C 0 8.7192 -4.3596
C 2.17994 8.81417 -2.13864
C 13.0576 10.9647 -2.14179
Si 1.05299 9.84632 -3.31277
Si 3.17981 9.83542 -1.03736
Si 1.07705 12.0064 -1.16438
Si 3.26784 11.9952 -3.19671
C 6.5394 10.899 -4.3596
C 4.3596 8.7192 -4.3596
C 6.47361 8.7659 -2.25371
C 4.31822 10.9627 -2.12099
Si 5.38791 9.88353 -3.31844
Si 7.53212 9.8384 -1.22377
Si 5.40457 12.0018 -0.984768
Si 7.64035 12.0482 -3.2644
C 10.899 10.899 -4.3596
C 8.7192 8.7192 -4.3596
C 10.8948 8.79979 -2.2521
C 8.73518 10.9338 -2.19834
Si 9.77395 9.86255 -3.34282
Si 11.9676 9.90676 -1.04395
Si 9.76411 11.9473 -1.06245
Si 11.9809 12.0406 -3.28551
C 0.149632 0.265341 -0.295171
C 1.65116 1.98046 -0.161666
C 4.03675 12.8684 -0.154107
C 6.65636 2.4512 -0.111906
C 8.43594 12.781 -0.179868
C 10.9651 2.48666 -0.313906
C 12.721 4.19343 -0.0522
C 2.44088 6.83817 -0.304647
C 4.541 4.60316 -0.392111
C 6.28965 6.31631 -0.275992
C 8.24588 4.20497 -0.199131
C 11.0562 6.86301 -0.208593
C 12.7433 8.5446 -0.114685
C 2.35716 11.1605 -0.25972
C 4.1941 8.53152 -0.137629
C 6.74316 11.0593 -0.143149
C 8.77897 8.91633 -0.328789
C 10.5922 10.6804 -0.13887
C 3.35283 7.50828 0.603677
C 11.768 7.75653 0.713213
C 11.8082 3.25089 0.707208
C 5.34172 5.3932 0.56496
C 3.05039 12.1042 0.59736
C 0.71132 1.13893 0.793665
C 12.5933 1.98406 1.18166
C 7.32518 3.49913 0.647578
C 4.24611 6.43057 1.27009
C 6.14862 4.26571 1.55508
C 9.72077 9.63114 0.511395
C 7.58637 11.9019 0.640274
C 10.4849 8.40326 1.4871
C 1.91976 0.0207504 1.44204
