175
Atoms. Timestep: 10000000
C 0 0 -8.7192
C 2.1798 0 -6.5394
C 0 2.1798 -6.5394
C 2.1798 2.1798 -8.7192
Si 1.0899 1.0899 -7.6293
Si 3.2697 1.0899 -5.4495
Si 1.0899 3.2697 -5.4495
Si 3.2697 3.2697 -7.6293
C 4.3596 0 -8.7192
C 6.5394 0 -6.5394
C 4.3596 2.1798 -6.5394
C 6.5394 2.1798 -8.7192
Si 5.4495 1.0899 -7.6293
Si 7.6293 1.0899 -5.4495
Si 5.4495 3.2697 -5.4495
Si 7.6293 3.2697 -7.6293
C 8.7192 0 -8.7192
C 10.899 0 -6.5394
C 8.7192 2.1798 -6.5394
C 10.899 2.1798 -8.7192
Si 9.8091 1.0899 -7.6293
Si 11.9889 1.0899 -5.4495
Si 9.8091 3.2697 -5.4495
Si 11.9889 3.2697 -7.6293
C 0 4.3596 -8.7192
C 2.1798 4.3596 -6.5394
C 0 6.5394 -6.5394
C 2.1798 6.5394 -8.7192
Si 1.0899 5.4495 -7.6293
Si 3.2697 5.4495 -5.4495
Si 1.0899 7.6293 -5.4495
Si 3.2697 7.6293 -7.6293
C 4.3596 4.3596 -8.7192
C 6.5394 4.3596 -6.5394
C 4.3596 6.5394 -6.5394
C 6.5394 6.5394 -8.7192
Si 5.4495 5.4495 -7.6293
Si 7.6293 5.4495 -5.4495
Si 5.4495 7.6293 -5.4495
Si 7.6293 7.6293 -7.6293
C 8.7192 4.3596 -8.7192
C 10.899 4.3596 -6.5394
C 8.7192 6.5394 -6.5394
C 10.899 6.5394 -8.7192
Si 9.8091 5.4495 -7.6293
Si 11.9889 5.4495 -5.4495
Si 9.8091 7.6293 -5.4495
Si 11.9889 7.6293 -7.6293
C 0 8.7192 -8.7192
C 2.1798 8.7192 -6.5394
C 0 10.899 -6.5394
C 2.1798 10.899 -8.7192
Si 1.0899 9.8091 -7.6293
Si 3.2697 9.8091 -5.4495
Si 1.0899 11.9889 -5.4495
Si 3.2697 11.9889 -7.6293
C 4.3596 8.7192 -8.7192
C 6.5394 8.7192 -6.5394
C 4.3596 10.899 -6.5394
C 6.5394 10.899 -8.7192
Si 5.4495 9.8091 -7.6293
Si 7.6293 9.8091 -5.4495
Si 5.4495 11.9889 -5.4495
Si 7.6293 11.9889 -7.6293
C 8.7192 8.7192 -8.7192
C 10.899 8.7192 -6.5394
C 8.7192 10.899 -6.5394
C 10.899 10.899 -8.7192
Si 9.8091 9.8091 -7.6293
Si 11.9889 9.8091 -5.4495
Si 9.8091 11.9889 -5.4495
Si 11.9889 11.9889 -7.6293
C 2.13459 0.0357444 -2.15237
C 13.064 2.27816 -2.21123
Si 1.0978 1.13868 -3.26655
Si 3.19555 1.18489 -1.08867
Si 1.07202 3.36745 -1.21682
Si 3.25432 3.30268 -3.25459
C 2.1798 2.1798 -4.3596
C 0 0 -4.3596
C 6.54462 0.0523993 -2.09589
C 4.27509 2.16712 -2.23882
Si 5.50419 1.02934 -3.27114
Si 7.65296 1.14268 -0.969962
Si 5.39708 3.19136 -1.10967
Si 7.61961 3.2031 -3.2396
C 6.5394 2.1798 -4.3596
C 4.3596 0 -4.3596
C 10.8901 0.00528345 -2.2185
C 8.67269 2.13425 -2.18564
Si 9.76145 1.10225 -3.30959
Si 11.8808 1.12904 -1.19122
Si 9.77225 3.27867 -1.04938
Si 11.9197 3.29159 -3.26149
C 10.899 2.1798 -4.3596
C 8.7192 0 -4.3596
C 2.19261 4.45828 -2.22329
C 13.0425 6.56136 -2.19776
Si 1.04344 5.45667 -3.34075
Si 3.32331 5.43811 -1.04553
Si 1.01903 7.58739 -1.0899
Si 3.28209 7.6284 -3.30858
C 2.1798 6.5394 -4.3596
C 0 4.3596 -4.3596
C 6.5394 6.5394 -4.3596
C 6.56788 4.41394 -2.18923
C 4.39549 6.52549 -2.21872
C 4.3596 4.3596 -4.3596
Si 5.49844 5.37026 -3.31444
Si 7.63546 5.38582 -1.14316
Si 5.41226 7.60408 -1.15545
Si 7.63441 7.62217 -3.26589
C 10.899 6.5394 -4.3596
C 8.7192 4.3596 -4.3596
C 10.8572 4.3602 -2.03276
C 8.70893 6.47953 -2.20012
Si 9.82442 5.46982 -3.21489
Si 11.995 5.50271 -1.05171
Si 9.71634 7.54378 -1.01162
Si 11.978 7.62589 -3.31603
C 2.1798 10.899 -4.3596
C 0 8.7192 -4.3596
C 2.18528 8.74197 -2.25424
C 12.9718 10.89 -2.14264
Si 1.04911 9.84513 -3.30568
Si 3.31085 9.84431 -1.10665
Si 0.981647 11.9719 -1.07048
Si 3.24482 11.986 -3.19249
C 6.5394 10.899 -4.3596
C 4.3596 8.7192 -4.3596
C 6.58332 8.69107 -2.24276
C 4.42034 10.893 -2.12403
Si 5.39309 9.82042 -3.27765
Si 7.57182 9.78649 -1.1919
Si 5.44478 11.9576 -1.11105
Si 7.64286 12.0065 -3.36728
C 10.899 10.899 -4.3596
C 8.7192 8.7192 -4.3596
C 10.8941 8.71013 -2.17901
C 8.66641 10.9854 -2.23034
Si 9.83177 9.87816 -3.34876
Si 11.9723 9.80135 -0.973473
Si 9.76394 12.0817 -1.11096
Si 11.9943 11.9593 -3.27258
C 0.165965 0.421614 -0.290577
C 1.95133 2.18366 -0.257476
C 4.18977 12.9351 -0.190006
C 6.59564 2.43633 -0.0995848
C 8.94953 0.265692 -0.0766569
C 10.6157 1.98955 -0.198209
C 0.0792021 4.39153 -0.168844
C 2.50264 6.78283 -0.230985
C 4.69186 4.60821 -0.176599
C 6.46894 6.38082 -0.203616
C 8.44905 4.13993 -0.144404
C 11.0875 6.75299 -0.125945
C 12.7505 8.44556 -0.0919324
C 2.42439 11.1471 -0.181487
C 4.25534 8.66233 -0.0761741
C 6.13908 10.4293 -0.27221
C 8.80377 9.04115 -0.23111
C 10.4572 10.6684 -0.243231
C 3.35283 7.50828 0.603677
Si 3.21536 12.0264 1.13078
C 9.59005 9.88717 0.701544
C 9.81676 1.13971 0.770793
C 1.01326 1.33111 0.497527
C 11.7424 7.73008 0.769698
Si 7.27225 3.3311 1.32189
C 5.41355 9.48251 0.540958
C 10.5433 8.91919 1.45026
C 8.7507 1.9063 1.72306
Si 5.80318 5.42595 1.29642
C 4.28503 6.67885 1.73392
C 1.84742 0.436299 1.46824
