162
Atoms. Timestep: 1000
C 0 0 -8.7192
C 2.1798 0 -6.5394
C 0 2.1798 -6.5394
C 2.1798 2.1798 -8.7192
Si 1.0899 1.0899 -7.6293
Si 3.2697 1.0899 -5.4495
Si 1.0899 3.2697 -5.4495
Si 3.2697 3.2697 -7.6293
C 4.3596 0 -8.7192
C 6.5394 0 -6.5394
C 4.3596 2.1798 -6.5394
C 6.5394 2.1798 -8.7192
Si 5.4495 1.0899 -7.6293
Si 7.6293 1.0899 -5.4495
Si 5.4495 3.2697 -5.4495
Si 7.6293 3.2697 -7.6293
C 8.7192 0 -8.7192
C 10.899 0 -6.5394
C 8.7192 2.1798 -6.5394
C 10.899 2.1798 -8.7192
Si 9.8091 1.0899 -7.6293
Si 11.9889 1.0899 -5.4495
Si 9.8091 3.2697 -5.4495
Si 11.9889 3.2697 -7.6293
C 0 4.3596 -8.7192
C 2.1798 4.3596 -6.5394
C 0 6.5394 -6.5394
C 2.1798 6.5394 -8.7192
Si 1.0899 5.4495 -7.6293
Si 3.2697 5.4495 -5.4495
Si 1.0899 7.6293 -5.4495
Si 3.2697 7.6293 -7.6293
C 4.3596 4.3596 -8.7192
C 6.5394 4.3596 -6.5394
C 4.3596 6.5394 -6.5394
C 6.5394 6.5394 -8.7192
Si 5.4495 5.4495 -7.6293
Si 7.6293 5.4495 -5.4495
Si 5.4495 7.6293 -5.4495
Si 7.6293 7.6293 -7.6293
C 8.7192 4.3596 -8.7192
C 10.899 4.3596 -6.5394
C 8.7192 6.5394 -6.5394
C 10.899 6.5394 -8.7192
Si 9.8091 5.4495 -7.6293
Si 11.9889 5.4495 -5.4495
Si 9.8091 7.6293 -5.4495
Si 11.9889 7.6293 -7.6293
C 0 8.7192 -8.7192
C 2.1798 8.7192 -6.5394
C 0 10.899 -6.5394
C 2.1798 10.899 -8.7192
Si 1.0899 9.8091 -7.6293
Si 3.2697 9.8091 -5.4495
Si 1.0899 11.9889 -5.4495
Si 3.2697 11.9889 -7.6293
C 4.3596 8.7192 -8.7192
C 6.5394 8.7192 -6.5394
C 4.3596 10.899 -6.5394
C 6.5394 10.899 -8.7192
Si 5.4495 9.8091 -7.6293
Si 7.6293 9.8091 -5.4495
Si 5.4495 11.9889 -5.4495
Si 7.6293 11.9889 -7.6293
C 8.7192 8.7192 -8.7192
C 10.899 8.7192 -6.5394
C 8.7192 10.899 -6.5394
C 10.899 10.899 -8.7192
Si 9.8091 9.8091 -7.6293
Si 11.9889 9.8091 -5.4495
Si 9.8091 11.9889 -5.4495
Si 11.9889 11.9889 -7.6293
C 2.14779 0.0365198 -2.25325
C 0.0186619 2.21444 -2.22827
Si 1.09431 1.05473 -3.26669
Si 3.20817 1.18515 -1.09931
Si 1.02779 3.23782 -1.04996
Si 3.21406 3.33174 -3.21975
C 2.1798 2.1798 -4.3596
C 0 0 -4.3596
C 6.59299 0.0372559 -2.26833
C 4.3438 2.15681 -2.14873
Si 5.41064 1.08908 -3.27158
Si 7.64776 1.17495 -1.04784
Si 5.41638 3.2794 -1.05891
Si 7.62477 3.26998 -3.29448
C 6.5394 2.1798 -4.3596
C 4.3596 0 -4.3596
C 10.7828 0.0216231 -2.13851
C 8.82774 2.28288 -2.12256
Si 9.80068 1.16071 -3.31076
Si 11.9168 1.06061 -1.05494
Si 9.88587 3.31001 -1.05703
Si 12.0525 3.22858 -3.23405
C 10.899 2.1798 -4.3596
C 8.7192 0 -4.3596
C 2.1528 4.3709 -2.05233
C 0.00602838 6.5444 -2.15393
Si 1.04505 5.42048 -3.25194
Si 3.28066 5.5484 -1.02205
Si 1.2051 7.70429 -1.06033
Si 3.25013 7.65655 -3.35558
C 2.1798 6.5394 -4.3596
C 0 4.3596 -4.3596
C 6.5394 6.5394 -4.3596
C 6.51868 4.27827 -2.18129
C 4.44015 6.6121 -2.19896
C 4.3596 4.3596 -4.3596
Si 5.46889 5.40596 -3.20574
Si 7.57025 5.42564 -1.06369
Si 5.47275 7.78645 -1.05892
Si 7.58551 7.57361 -3.29365
C 10.899 6.5394 -4.3596
C 8.7192 4.3596 -4.3596
C 10.9623 4.38915 -2.17227
C 8.71872 6.62421 -2.16531
Si 9.87038 5.45255 -3.2614
Si 11.9946 5.44644 -1.04244
Si 9.884 7.67868 -1.15269
Si 12.0338 7.58429 -3.25067
C 2.1798 10.899 -4.3596
C 0 8.7192 -4.3596
C 2.19368 8.78476 -2.19168
C 13.0435 10.9144 -2.18885
Si 1.16399 9.88123 -3.2942
Si 3.29374 9.89367 -1.16426
Si 1.11827 11.9854 -1.12243
Si 3.25447 12.0462 -3.33217
C 6.5394 10.899 -4.3596
C 4.3596 8.7192 -4.3596
C 6.58017 8.7191 -2.22144
C 4.31442 11.0096 -2.27517
Si 5.43515 9.79104 -3.30451
Si 7.66694 9.87691 -1.18792
Si 5.50634 12.0637 -1.12335
Si 7.64468 12.0186 -3.30217
C 10.899 10.899 -4.3596
C 8.7192 8.7192 -4.3596
C 11.0099 8.72831 -2.19657
C 8.72404 11.0211 -2.21408
Si 9.81097 9.82659 -3.26617
Si 11.9944 9.90814 -1.05164
Si 9.76211 12.0305 -1.13352
Si 11.9339 11.9776 -3.24581
C 0.0369126 13.0263 -0.222208
C 2.08741 2.14447 -0.17079
C 4.28742 13.047 -0.287102
C 6.51245 2.2675 -0.146053
C 8.68921 0.0262828 -0.231113
C 11.0686 2.32831 -0.169931
C 13.0664 4.31113 -0.125054
C 2.28895 6.7027 -0.161858
C 4.43336 4.49121 -0.236214
C 6.5227 6.59895 -0.172907
C 8.68408 4.34912 -0.14005
C 10.9679 6.61909 -0.265124
C 0.166014 8.86811 -0.20578
C 2.28304 11.0009 -0.305814
C 4.27649 8.84495 -0.213035
C 6.65426 10.9709 -0.308447
C 8.60785 8.66021 -0.338435
C 10.6968 10.8472 -0.281062
